Circuit: *

Direct Newton iteration for .op point succeeded.

Date: Sun Aug 23 19:01:14 2015
Total elapsed time: 0.533 seconds.

tnom = 27
temp = 27
method = modified trap
totiter = 39357
traniter = 39349
tranpoints = 8555
accept = 6767
rejected = 1788
matrix size = 16
fillins = 0
solver = Normal
Matrix Compiler1: 556 object code size  0.2/0.1/[0.0]
Matrix Compiler2:      83 opcodes

