Circuit: * H:\Electronics\git\sconnsim\schematic\fmMod_V3.asc

u4:r18: both pins shorted together -- ignoring.
Limiting rise time of source v3 to 1e-008
Limiting fall time of source v3 to 1e-008
WARNING: Less than two connections to node N008.  This node is used by A4.
WARNING: Less than two connections to node N013.  This node is used by Q5.
WARNING: Less than two connections to node NC_14.  This node is used by R4.
Direct Newton iteration failed to find .op point.  (Use ".option noopiter" to skip.)
Starting Gmin stepping
Gmin = 10
Gmin = 1.07374
Gmin = 0.115292
Gmin = 0.0123794
Gmin = 0.00132923
Gmin = 0.000142725
Gmin = 1.5325e-005
Gmin = 1.6455e-006
Gmin = 1.76685e-007
vernier = 0.5
vernier = 0.25
vernier = 0.125
vernier = 0.0625
Gmin = 1.25642e-007
vernier = 0.03125
vernier = 0.015625
vernier = 0.0078125
Gmin = 1.24423e-007
vernier = 0.0104167
vernier = 0.0138889
Gmin = 1.21177e-007
vernier = 0.0185185
Gmin = 1.16241e-007
vernier = 0.0246913
vernier = 0.0329218
Gmin = 1.08414e-007
vernier = 0.0438957
vernier = 0.0585276
Gmin = 9.70309e-008
vernier = 0.0780367
Gmin = 8.15322e-008
vernier = 0.104049
vernier = 0.138732
Gmin = 6.09796e-008
vernier = 0.184976
vernier = 0.246634
Gmin = 3.85303e-008
vernier = 0.328846
Gmin = 1.88795e-008
vernier = 0.438461
vernier = 0.21923
vernier = 0.109615
Gmin = 1.09241e-008
vernier = 0.0548076
vernier = 0.0730768
vernier = 0.0365384
vernier = 0.0182692
Gmin = 1.04375e-008
vernier = 0.0243589
Gmin = 9.88238e-009
vernier = 0.0324786
vernier = 0.0433047
Gmin = 9.01744e-009
vernier = 0.0577396
vernier = 0.0288698
Gmin = 0
Gmin stepping aborted per request.

Starting source stepping with srcstepmethod=0
Source Step = 3.0303%
Source Step = 33.3333%
vernier = 0.25
Source Step = 32.0076%
Source Step = 33.9015%
Source Step = 35.7955%
Source Step = 36.5057%
Source Step = 36.9792%
Source Step = 37.4527%
Source Step = 37.9261%
Source Step = 38.3996%
vernier = 0.0234375
Source Step = 39.0152%
Source Step = 39.7254%
Source Step = 40.4356%
Source Step = 41.1458%
Source Step = 41.8561%
vernier = 0.0351563
Source Step = 42.7438%
Source Step = 43.8092%
Source Step = 44.8745%
Source Step = 45.9399%
Source Step = 47.0052%
vernier = 0.0527344
Source Step = 48.2836%
Source Step = 49.8816%
Source Step = 51.4796%
Source Step = 53.0777%
Source Step = 54.6757%
vernier = 0.0791016
Source Step = 56.5134%
Source Step = 58.9104%
Source Step = 61.3074%
Source Step = 63.7044%
Source Step = 66.1014%
vernier = 0.118652
Source Step = 68.7382%
Source Step = 72.3337%
Source Step = 75.9292%
Source Step = 79.5247%
Source Step = 83.1203%
vernier = 0.177979
Source Step = 86.8956%
Source Step = 92.2889%
Source Step = 97.6821%
Source stepping succeeded in finding the operating point.


Date: Mon Aug 17 16:02:15 2015
Total elapsed time: 6.058 seconds.

tnom = 27
temp = 27
method = modified trap
totiter = 16028
traniter = 11758
tranpoints = 3717
accept = 3091
rejected = 626
matrix size = 201
fillins = 188
solver = Normal
Thread vector: 40.0/29.5[4] 18.8/8.5[4] 9.4/6.4[4] 1.1/3.4[1]  2592/500
Matrix Compiler1: 14,6 KB object code size  8.5/5.8/[2.3]
Matrix Compiler2: off  [4.6]/6.3/20.5


