Missing ".ends" statement in file "Trafos.Lib"
Circuit: * H:\Electronics\git\sconnsim\schematic\fmMod_V6.asc

Fatal Error: Multiple instances of "K1_A0"
