Missing ".ends" statement in file "Trafos.Lib"
Circuit: * H:\Electronics\git\sconnsim\schematic\fmMod_V6.asc

u4:r18: both pins shorted together -- ignoring.
WARNING: Less than two connections to node N024.  This node is used by V9.
Direct Newton iteration for .op point succeeded.

Date: Mon Aug 24 08:05:26 2015
Total elapsed time: 7.801 seconds.

tnom = 27
temp = 27
method = modified trap
totiter = 210136
traniter = 210115
tranpoints = 80218
accept = 55675
rejected = 24543
matrix size = 143
fillins = 111
solver = Normal
Thread vector: 23.5/15.7[2] 11.2/6.8[2] 3.3/2.0[2] 1.0/2.1[1]  2592/500
Matrix Compiler1: 12,1 KB object code size  5.6/4.4/[2.4]
Matrix Compiler2: off  [2.5]/3.5/10.5


